/*--------------------------------*- C++ -*----------------------------------*\
  =========                 |
  \\      /  F ield         | OpenFOAM: The Open Source CFD Toolbox
   \\    /   O peration     | Website:  https://openfoam.org
    \\  /    A nd           | Version:  8
     \\/     M anipulation  |
\*---------------------------------------------------------------------------*/
FoamFile
{
    version     2.0;
    format      ascii;
    class       featureEdgeMesh;
    location    "constant/triSurface";
    object      model.eMesh;
}
// * * * * * * * * * * * * * * * * * * * * * * * * * * * * * * * * * * * * * //


// points:

382
(
(-0.081 0.237 0.04352)
(-0.081 0.13746 0.00961214)
(-0.081 -0.363 0.0136)
(-0.102 0 0)
(-0.1335 0 0)
(-0.156 0 0.031008)
(-0.0986155 -0.363 0.0345934)
(0.081 0.237 0.04352)
(0.081 -0.363 0.0136)
(0.081 0.13746 0.00961214)
(0.102 0 0)
(0.1335 0 0)
(0.156 0 0.031008)
(0.110899 -0.164939 0.0441866)
(0.0986155 -0.363 0.0345934)
(-0.102 0.13746 0.0139641)
(0.102 0.13746 0.0139641)
(-0.081 0.0974291 0.0362503)
(-0.081 0.0983412 0.0351368)
(-0.081 0.0988267 0.0337819)
(-0.081 0.0988292 0.0323426)
(-0.081 0.0983484 0.0309859)
(-0.081 0.0974401 0.0298694)
(-0.081 0.0962097 0.0291225)
(-0.081 0.13746 0.0139641)
(-0.081 0 0.004352)
(-0.081 -0.363 0.017952)
(-0.102 0.13746 0.00961214)
(-0.102 0 0.004352)
(-0.117098 0 0.0473719)
(-0.032 0.0948 0.028832)
(0.081 0.0974291 0.0362503)
(0.081 0.0983412 0.0351368)
(0.081 0.0988267 0.0337819)
(0.081 0.0988292 0.0323426)
(0.081 0.0983484 0.0309859)
(0.081 0.0974401 0.0298694)
(0.081 0.0962097 0.0291225)
(0.032 0.0948 0.028832)
(0.081 0.13746 0.0139641)
(0.081 0 0.004352)
(0.081 -0.363 0.017952)
(0.102 0.13746 0.00961214)
(0.102 0 0.004352)
(0.117098 0 0.0473719)
(0.115708 -0.042576 0.0468001)
(0.115036 -0.0622807 0.0465015)
(-0.081 0.14139 0.0530094)
(-0.081 0.126402 0.0536489)
(-0.081 0.111015 0.0541744)
(-0.081 0.0953114 0.0545822)
(-0.081 0.155935 0.0522497)
(-0.081 0.17004 0.0513531)
(-0.081 0.183748 0.0502927)
(-0.081 0.197147 0.0490317)
(-0.081 0.210366 0.0475226)
(-0.081 0.223578 0.0457079)
(-0.081 0.235571 0.0417964)
(-0.081 0.225863 0.0336907)
(-0.081 0.228125 0.0352394)
(-0.081 0.230234 0.0368255)
(-0.081 0.220905 0.0307101)
(-0.081 0.215417 0.0278928)
(-0.081 0.209457 0.0252469)
(-0.081 0.203087 0.0227801)
(-0.081 0.196367 0.0205)
(-0.081 0.18936 0.0184134)
(-0.081 0.182129 0.0165257)
(-0.081 0.174736 0.0148424)
(-0.081 0.167243 0.0133678)
(-0.081 0.159711 0.012105)
(-0.081 0.152198 0.0110569)
(-0.081 0.144763 0.0102258)
(-0.081 0.232182 0.0384479)
(-0.081 0.233963 0.0401053)
(-0.081 0.0794153 0.0548597)
(-0.081 0.0634452 0.0549977)
(-0.081 0.0315894 0.0548788)
(-0.081 0 0.0544)
(-0.141703 0 0.0383002)
(-0.146531 0 0.0360229)
(-0.126999 0 0.0442008)
(-0.131928 0 0.0423886)
(-0.136832 0 0.0404221)
(-0.151302 0 0.0335914)
(-0.152992 0.158306 0.036706)
(-0.153853 0.154352 0.0365193)
(-0.151957 0.1623 0.036904)
(-0.150747 0.166324 0.0371129)
(-0.149357 0.170365 0.0373324)
(-0.14779 0.174407 0.0375621)
(-0.146048 0.178438 0.0378012)
(-0.144134 0.182443 0.0380492)
(-0.142051 0.186407 0.0383053)
(-0.1398 0.190318 0.0385689)
(-0.137388 0.19416 0.0388394)
(-0.134822 0.197919 0.0391155)
(-0.132111 0.201582 0.0393966)
(-0.129263 0.205134 0.0396815)
(-0.126285 0.208563 0.0399694)
(-0.123188 0.211853 0.0402592)
(-0.119983 0.214994 0.0405499)
(-0.116682 0.217975 0.0408404)
(-0.113296 0.220786 0.0411298)
(-0.109838 0.223415 0.041417)
(-0.106317 0.225854 0.0417009)
(-0.102748 0.228091 0.0419806)
(-0.0991424 0.230118 0.0422551)
(-0.0955129 0.231933 0.0425234)
(-0.0918718 0.233532 0.0427849)
(-0.0882312 0.234912 0.0430387)
(-0.0846032 0.236069 0.043284)
(-0.154545 0.150453 0.0363441)
(-0.155072 0.146621 0.0361806)
(-0.15544 0.142866 0.0360286)
(-0.155658 0.1392 0.0358883)
(-0.155733 0.135632 0.0357594)
(-0.132648 0.152412 0.0110949)
(-0.133291 0.144819 0.0102341)
(-0.13155 0.160172 0.0122011)
(-0.129989 0.168017 0.013551)
(-0.127965 0.175863 0.0151387)
(-0.125478 0.183623 0.0169577)
(-0.109073 0.214997 0.027572)
(-0.111269 0.21195 0.0262316)
(-0.106799 0.2179 0.0289421)
(-0.104453 0.220647 0.0303387)
(-0.102038 0.223229 0.0317584)
(-0.0995617 0.225636 0.0331979)
(-0.097029 0.22786 0.0346534)
(-0.0944465 0.229894 0.0361213)
(-0.0918201 0.231731 0.0375978)
(-0.089156 0.233365 0.0390795)
(-0.0864605 0.234791 0.0405627)
(-0.0837398 0.236004 0.0420441)
(-0.113383 0.208768 0.0249243)
(-0.115409 0.205461 0.0236533)
(-0.119177 0.198516 0.0212335)
(-0.122541 0.191205 0.0189954)
(-0.1335 0.13746 0.00961214)
(-0.100443 -0.338876 0.036157)
(-0.102192 -0.314506 0.0376202)
(-0.10386 -0.289919 0.0389814)
(-0.105444 -0.265142 0.0402387)
(-0.106944 -0.240205 0.0413904)
(-0.108356 -0.215136 0.0424349)
(-0.109679 -0.189965 0.0433704)
(-0.110899 -0.164939 0.0441866)
(-0.111464 -0.152651 0.0445464)
(-0.112 -0.14054 0.0448764)
(-0.112508 -0.128624 0.0451783)
(-0.112989 -0.116923 0.0454539)
(-0.113445 -0.105454 0.0457051)
(-0.113877 -0.0942369 0.0459336)
(-0.114285 -0.0832898 0.0461414)
(-0.114671 -0.0726316 0.04633)
(-0.115036 -0.0622807 0.0465015)
(-0.115382 -0.052256 0.0466576)
(-0.115708 -0.042576 0.0468001)
(-0.116017 -0.0332593 0.0469308)
(-0.116309 -0.0243248 0.0470515)
(-0.116586 -0.0157909 0.047164)
(-0.116849 -0.00767646 0.0472702)
(-0.032 0.092625 0.0276961)
(-0.032 -0.102495 0.0182151)
(-0.032 -0.153036 0.0183249)
(-0.032 0.0902166 0.0266446)
(-0.032 0.0875836 0.0256735)
(-0.032 0.0847346 0.0247791)
(-0.032 -0.0774925 0.0180593)
(-0.032 0.0816782 0.0239574)
(-0.032 0.0784226 0.0232048)
(-0.032 0.0749759 0.0225177)
(-0.032 -0.0528857 0.0178873)
(-0.032 0.0713462 0.0218925)
(-0.032 0.0675413 0.0213259)
(-0.032 -0.0407965 0.0178154)
(-0.032 0.0635687 0.0208143)
(-0.032 -0.0288906 0.0177665)
(-0.032 0.059436 0.0203548)
(-0.032 0.0551504 0.0199439)
(-0.032 0.0461492 0.0192562)
(-0.032 -0.00576633 0.017787)
(-0.032 -0.0172018 0.0177525)
(-0.032 0.0366201 0.0187279)
(-0.032 0.0161854 0.018062)
(-0.032 0.00537665 0.0178847)
(-0.032 0.0266156 0.0183366)
(-0.032 -0.2541 0.017952)
(-0.0898727 -0.363 0.0365602)
(-0.081 -0.363 0.03808)
(-0.0745386 -0.363 0.0388786)
(-0.0680359 -0.363 0.0393906)
(-0.0615185 -0.363 0.0396169)
(-0.055 -0.363 0.0396541)
(0 -0.363 0.0396541)
(0.081 0.209457 0.0252469)
(0.081 0.203087 0.0227801)
(0.081 0.196367 0.0205)
(0.081 0.215417 0.0278928)
(0.081 0.220905 0.0307101)
(0.081 0.225863 0.0336907)
(0.081 0.228125 0.0352394)
(0.081 0.230234 0.0368255)
(0.081 0.232182 0.0384479)
(0.081 0.233963 0.0401053)
(0.081 0.235571 0.0417964)
(0.081 0.223578 0.0457079)
(0.081 0.210366 0.0475226)
(0.081 0.197147 0.0490317)
(0.081 0.183748 0.0502927)
(0.081 0.17004 0.0513531)
(0.081 0.155935 0.0522497)
(0.081 0.14139 0.0530094)
(0.081 0.126402 0.0536489)
(0.081 0.111015 0.0541744)
(0.081 0.0953114 0.0545822)
(0.081 0.0794153 0.0548597)
(0.081 0.0634452 0.0549977)
(0.081 0.0315894 0.0548788)
(0.081 0 0.0544)
(0.081 0.18936 0.0184134)
(0.081 0.182129 0.0165257)
(0.081 0.174736 0.0148424)
(0.081 0.167243 0.0133678)
(0.081 0.159711 0.012105)
(0.081 0.152198 0.0110569)
(0.081 0.144763 0.0102258)
(0.141703 0 0.0383002)
(0.136832 0 0.0404221)
(0.151302 0 0.0335914)
(0.146531 0 0.0360229)
(0.131928 0 0.0423886)
(0.126999 0 0.0442008)
(0.155733 0.135632 0.0357594)
(0.155658 0.1392 0.0358883)
(0.15544 0.142866 0.0360286)
(0.155072 0.146621 0.0361806)
(0.154545 0.150453 0.0363441)
(0.153853 0.154352 0.0365193)
(0.152992 0.158306 0.036706)
(0.151957 0.1623 0.036904)
(0.150747 0.166324 0.0371129)
(0.149357 0.170365 0.0373324)
(0.14779 0.174407 0.0375621)
(0.146048 0.178438 0.0378012)
(0.144134 0.182443 0.0380492)
(0.142051 0.186407 0.0383053)
(0.1398 0.190318 0.0385689)
(0.137388 0.19416 0.0388394)
(0.134822 0.197919 0.0391155)
(0.132111 0.201582 0.0393966)
(0.129263 0.205134 0.0396815)
(0.126285 0.208563 0.0399694)
(0.123188 0.211853 0.0402592)
(0.119983 0.214994 0.0405499)
(0.116682 0.217975 0.0408404)
(0.113296 0.220786 0.0411298)
(0.109838 0.223415 0.041417)
(0.106317 0.225854 0.0417009)
(0.102748 0.228091 0.0419806)
(0.0991424 0.230118 0.0422551)
(0.0955129 0.231933 0.0425234)
(0.0918718 0.233532 0.0427849)
(0.0882312 0.234912 0.0430387)
(0.0846032 0.236069 0.043284)
(0.1335 0.13746 0.00961214)
(0.133291 0.144819 0.0102341)
(0.132648 0.152412 0.0110949)
(0.13155 0.160172 0.0122011)
(0.129989 0.168017 0.013551)
(0.127965 0.175863 0.0151387)
(0.125478 0.183623 0.0169577)
(0.122541 0.191205 0.0189954)
(0.119177 0.198516 0.0212335)
(0.115409 0.205461 0.0236533)
(0.113383 0.208768 0.0249243)
(0.111269 0.21195 0.0262316)
(0.109073 0.214997 0.027572)
(0.106799 0.2179 0.0289421)
(0.104453 0.220647 0.0303387)
(0.102038 0.223229 0.0317584)
(0.0995617 0.225636 0.0331979)
(0.097029 0.22786 0.0346534)
(0.0944465 0.229894 0.0361213)
(0.0918201 0.231731 0.0375978)
(0.089156 0.233365 0.0390795)
(0.0864605 0.234791 0.0405627)
(0.0837398 0.236004 0.0420441)
(0.116849 -0.00767646 0.0472702)
(0.116586 -0.0157909 0.047164)
(0.116309 -0.0243248 0.0470515)
(0.116017 -0.0332593 0.0469308)
(0.114671 -0.0726316 0.04633)
(0.114285 -0.0832898 0.0461414)
(0.113877 -0.0942369 0.0459336)
(0.113445 -0.105454 0.0457051)
(0.112989 -0.116923 0.0454539)
(0.112508 -0.128624 0.0451783)
(0.112 -0.14054 0.0448764)
(0.111464 -0.152651 0.0445464)
(0.109679 -0.189965 0.0433704)
(0.108356 -0.215136 0.0424349)
(0.106944 -0.240205 0.0413904)
(0.105444 -0.265142 0.0402387)
(0.10386 -0.289919 0.0389814)
(0.102192 -0.314506 0.0376202)
(0.100443 -0.338876 0.036157)
(0.032 0.092625 0.0276961)
(0.032 -0.2541 0.017952)
(0.032 -0.153036 0.0183249)
(0.032 -0.102495 0.0182151)
(0.032 0.0902166 0.0266446)
(0.032 0.0875836 0.0256735)
(0.032 0.0847346 0.0247791)
(0.032 -0.0774925 0.0180593)
(0.032 0.0816782 0.0239574)
(0.032 0.0784226 0.0232048)
(0.032 0.0749759 0.0225177)
(0.032 -0.0528857 0.0178873)
(0.032 0.0713462 0.0218925)
(0.032 0.0675413 0.0213259)
(0.032 -0.0407965 0.0178154)
(0.032 0.0635687 0.0208143)
(0.032 -0.0288906 0.0177665)
(0.032 0.059436 0.0203548)
(0.032 0.0551504 0.0199439)
(0.032 -0.0172018 0.0177525)
(0.032 -0.00576633 0.017787)
(0.032 0.0461492 0.0192562)
(0.032 0.00537665 0.0178847)
(0.032 0.0161854 0.018062)
(0.032 0.0266156 0.0183366)
(0.032 0.0366201 0.0187279)
(0.0898727 -0.363 0.0365602)
(0.11021 -0.176278 0.0438738)
(0.081 -0.363 0.03808)
(0.0745386 -0.363 0.0388786)
(0.0680359 -0.363 0.0393906)
(0.055 -0.363 0.0396541)
(0.0615185 -0.363 0.0396169)
(-0.081 0.0961962 0.0369929)
(-0.081 0.0948 0.037536)
(-0.081 0.0840229 0.0412812)
(-0.081 0.0732058 0.0447424)
(-0.081 0.0676601 0.046356)
(-0.081 0.0619834 0.0478784)
(-0.081 0.0561619 0.0492949)
(-0.081 0.0948 0.028832)
(-0.081 -0.234105 0.0182729)
(-0.081 -0.244101 0.0180322)
(-0.081 -0.2541 0.017952)
(-0.081 0.0501945 0.050587)
(-0.081 0.0440929 0.0517326)
(-0.081 0.0378817 0.0527054)
(-0.081 0.0315967 0.0534772)
(-0.081 0.025274 0.0540295)
(-0.081 0.0189408 0.0543642)
(-0.081 0.0126141 0.0545045)
(-0.032 -0.234105 0.0182729)
(-0.032 -0.244101 0.0180322)
(0.081 0.0948 0.037536)
(0.081 0.0961962 0.0369929)
(0.081 0.0948 0.028832)
(0.081 0.0840229 0.0412812)
(0.081 0.0732058 0.0447424)
(0.081 0.0676601 0.046356)
(0.081 0.0619834 0.0478784)
(0.081 0.0561619 0.0492949)
(0.081 0.0501945 0.050587)
(0.081 0.0440929 0.0517326)
(0.081 0.0378817 0.0527054)
(0.081 0.0315967 0.0534772)
(0.081 0.025274 0.0540295)
(0.081 0.0189408 0.0543642)
(0.081 0.0126141 0.0545045)
(0.081 -0.234105 0.0182729)
(0.081 -0.244101 0.0180322)
(0.081 -0.2541 0.017952)
(0.115382 -0.052256 0.0466576)
(0.032 -0.234105 0.0182729)
(0.032 -0.244101 0.0180322)
)


// edges:

407
(
(47 48)
(48 49)
(49 50)
(51 47)
(52 51)
(53 52)
(54 53)
(55 54)
(56 55)
(0 56)
(57 0)
(58 59)
(59 60)
(61 58)
(62 61)
(63 62)
(64 63)
(65 64)
(66 65)
(67 66)
(68 67)
(69 68)
(70 69)
(71 70)
(72 71)
(24 1)
(1 72)
(25 24)
(2 25)
(26 2)
(60 73)
(73 74)
(74 57)
(50 75)
(75 76)
(76 77)
(77 78)
(27 1)
(25 28)
(28 3)
(3 27)
(4 3)
(79 80)
(29 81)
(81 82)
(82 83)
(83 79)
(80 84)
(84 5)
(5 4)
(85 86)
(87 85)
(88 87)
(89 88)
(90 89)
(91 90)
(92 91)
(93 92)
(94 93)
(95 94)
(96 95)
(97 96)
(98 97)
(99 98)
(100 99)
(101 100)
(102 101)
(103 102)
(104 103)
(105 104)
(106 105)
(107 106)
(108 107)
(109 108)
(110 109)
(111 110)
(0 111)
(86 112)
(112 113)
(113 114)
(114 115)
(115 116)
(116 5)
(117 118)
(119 117)
(120 119)
(121 120)
(122 121)
(123 124)
(125 123)
(126 125)
(127 126)
(128 127)
(129 128)
(130 129)
(131 130)
(132 131)
(133 132)
(134 133)
(0 134)
(124 135)
(135 136)
(136 137)
(137 138)
(138 122)
(118 139)
(139 4)
(6 140)
(2 6)
(140 141)
(141 142)
(142 143)
(143 144)
(144 145)
(145 146)
(146 147)
(147 148)
(148 149)
(149 150)
(150 151)
(151 152)
(152 153)
(153 154)
(154 155)
(155 156)
(156 157)
(157 158)
(158 159)
(159 160)
(160 161)
(161 162)
(162 29)
(30 163)
(164 165)
(163 166)
(166 167)
(167 168)
(169 164)
(168 170)
(170 171)
(171 172)
(173 169)
(172 174)
(174 175)
(176 173)
(175 177)
(178 176)
(177 179)
(179 180)
(180 181)
(182 183)
(183 178)
(181 184)
(185 186)
(186 182)
(184 187)
(187 185)
(165 188)
(6 189)
(189 190)
(190 191)
(191 192)
(192 193)
(193 194)
(194 195)
(31 17)
(32 18)
(33 19)
(34 20)
(35 21)
(36 22)
(37 23)
(196 197)
(197 198)
(199 196)
(200 199)
(201 200)
(202 201)
(203 202)
(204 203)
(205 204)
(206 205)
(207 7)
(7 206)
(208 207)
(209 208)
(210 209)
(211 210)
(212 211)
(213 212)
(214 213)
(215 214)
(216 215)
(217 216)
(218 217)
(219 218)
(220 219)
(198 221)
(39 40)
(40 8)
(8 41)
(221 222)
(222 223)
(223 224)
(224 225)
(225 226)
(226 227)
(9 39)
(227 9)
(9 42)
(43 40)
(10 43)
(42 10)
(10 11)
(228 229)
(12 230)
(11 12)
(230 231)
(231 228)
(229 232)
(232 233)
(233 44)
(234 235)
(12 234)
(235 236)
(236 237)
(237 238)
(238 239)
(239 240)
(240 241)
(241 242)
(242 243)
(243 244)
(244 245)
(245 246)
(246 247)
(247 248)
(248 249)
(249 250)
(250 251)
(251 252)
(252 253)
(253 254)
(254 255)
(255 256)
(256 257)
(257 258)
(258 259)
(259 260)
(260 261)
(261 262)
(262 263)
(263 264)
(264 265)
(265 7)
(11 266)
(266 267)
(267 268)
(268 269)
(269 270)
(270 271)
(271 272)
(272 273)
(273 274)
(274 275)
(275 276)
(276 277)
(277 278)
(278 279)
(279 280)
(280 281)
(281 282)
(282 283)
(283 284)
(284 285)
(285 286)
(286 287)
(287 288)
(288 7)
(44 289)
(289 290)
(290 291)
(291 292)
(292 45)
(46 293)
(293 294)
(294 295)
(295 296)
(296 297)
(297 298)
(298 299)
(299 300)
(300 13)
(13 301)
(301 302)
(302 303)
(303 304)
(304 305)
(305 306)
(306 307)
(307 14)
(14 8)
(41 26)
(308 38)
(309 310)
(310 311)
(312 308)
(313 312)
(314 313)
(311 315)
(316 314)
(317 316)
(318 317)
(315 319)
(320 318)
(321 320)
(319 322)
(323 321)
(322 324)
(325 323)
(326 325)
(324 327)
(327 328)
(329 326)
(328 330)
(330 331)
(332 333)
(331 332)
(333 329)
(334 14)
(13 335)
(336 334)
(337 336)
(338 337)
(339 340)
(340 338)
(195 339)
(341 17)
(342 341)
(343 342)
(344 343)
(345 344)
(346 345)
(347 346)
(17 18)
(18 19)
(19 20)
(20 21)
(21 22)
(22 23)
(23 348)
(348 349)
(349 350)
(350 351)
(351 26)
(352 347)
(353 352)
(354 353)
(355 354)
(356 355)
(357 356)
(358 357)
(78 358)
(24 15)
(15 27)
(28 15)
(25 29)
(30 359)
(359 360)
(360 188)
(361 362)
(362 31)
(31 32)
(32 33)
(33 34)
(34 35)
(35 36)
(36 37)
(37 363)
(38 30)
(361 364)
(364 365)
(365 366)
(366 367)
(367 368)
(368 369)
(369 370)
(370 371)
(371 372)
(372 373)
(373 374)
(374 375)
(375 220)
(376 363)
(377 376)
(378 377)
(41 378)
(42 16)
(16 39)
(16 43)
(44 40)
(45 379)
(379 46)
(380 38)
(309 381)
(381 380)
(45 46)
)

// * * * * * * * * * * * * * * * * * * * * * * * * * * * * * * * * * * * * * //


// ************************************************************************* //
