/*--------------------------------*- C++ -*----------------------------------*\
  =========                 |
  \\      /  F ield         | OpenFOAM: The Open Source CFD Toolbox
   \\    /   O peration     | Website:  https://openfoam.org
    \\  /    A nd           | Version:  dev
     \\/     M anipulation  |
\*---------------------------------------------------------------------------*/
FoamFile
{
    version     2.0;
    format      ascii;
    class       dictionary;
    object      blockMeshDict;
}
// * * * * * * * * * * * * * * * * * * * * * * * * * * * * * * * * * * * * * //

convertToMeters 1;
lengthFront 3;
lengthBack -5;
widthP 2;
widthN -2;
height 2;

vertices
(
    ($widthN $lengthBack  0.0)
    ($widthP $lengthBack  0.0)
    ($widthP $lengthFront 0.0)
    ($widthN $lengthFront 0.0)
    ($widthN $lengthBack  $height)
    ($widthP $lengthBack  $height)
    ($widthP $lengthFront $height)
    ($widthN $lengthFront $height)
);

blocks
(
    hex (0 1 2 3 4 5 6 7) (80 160 40) simpleGrading (1 1 1)
);

edges
(
);

defaultPatch
{
    name walls;
    type wall;
}

boundary
(
    inlet
    {
        type patch;
        faces
        (
            (3 2 6 7)
        );
    }
    outlet
    {
        type patch;
        faces
        (
            (0 1 5 4)
        );
    }
    ground
    {
        type wall;
        faces
        (
            (0 1 2 3)
        );
    }
    model
    {
        type wall;
        faces
        (            
        );
    }
);

// ************************************************************************* //
