/*--------------------------------*- C++ -*----------------------------------*\
  =========                 |
  \\      /  F ield         | OpenFOAM: The Open Source CFD Toolbox
   \\    /   O peration     | Website:  https://openfoam.org
    \\  /    A nd           | Version:  dev
     \\/     M anipulation  |
\*---------------------------------------------------------------------------*/
FoamFile
{
    version     2.0;
    format      ascii;
    class       volScalarField;
    object      p;
}
// * * * * * * * * * * * * * * * * * * * * * * * * * * * * * * * * * * * * * //

dimensions      [1 -1 -2 0 0 0 0];

internalField   uniform 101325;

boundaryField
{
    walls
    {
        type            zeroGradient;
    }
    inlet
    {
        type            zeroGradient;
        // type            mixed;
        refValue        $internalField;
        refGradient     uniform 0;
        valueFraction   uniform 0.3;
    }
    outlet
    {
        type            fixedValue;
        value           $internalField;

        // type            mixed;
        // refValue        $internalField;
        // refGradient     uniform 0;
        // valueFraction   uniform 1;
        // type            transonicOutletPressure;
        // U               U;
        // phi             phi;
        // gamma           1.4;
        // psi             psi;
        // pInf            $internalField;
    }
    model
    {
        type            zeroGradient;
    }
    #includeEtc "caseDicts/setConstraintTypes"
}

// ************************************************************************* //
